Circuit: * D:\WORK\Project\Github\Buzzer_Sounder\sim\CD4049UB_test.asc

Direct Newton iteration for .op point succeeded.

Date: Fri Nov 02 19:03:07 2018
Total elapsed time: 0.530 seconds.

tnom = 27
temp = 27
method = modified trap
totiter = 20145
traniter = 20117
tranpoints = 10045
accept = 10037
rejected = 8
matrix size = 21
fillins = 0
solver = Alternate
Matrix Compiler1:      63 opcodes  0.6/[0.4]/0.5
Matrix Compiler2: 2.12 KB object code size  0.5/2.8/[0.4]

