Circuit: * D:\WORK\Project\Github\Buzzer_Sounder\sim\gain_phase_Measurement.asc

.OP point found by inspection.

Date: Mon Nov 05 12:42:59 2018
Total elapsed time: 0.047 seconds.

tnom = 27
temp = 27
method = trap
totiter = 0
traniter = 0
tranpoints = 0
accept = 0
rejected = 0
matrix size = 11
fillins = 13
solver = Alternate

