Circuit: * D:\WORK\Project\Github\Buzzer_Sounder\sim\oscillator test_inverter.asc

Direct Newton iteration for .op point succeeded.

Date: Mon Nov 05 15:12:08 2018
Total elapsed time: 5.137 seconds.

tnom = 27
temp = 27
method = modified trap
totiter = 505338
traniter = 505324
tranpoints = 125133
accept = 92837
rejected = 32296
matrix size = 24
fillins = 19
solver = Alternate
Matrix Compiler1: 3.93 KB object code size  1.0/0.7/[0.6]
Matrix Compiler2: 2.98 KB object code size  0.4/0.7/[0.4]

