Circuit: * D:\WORK\Project\Github\Buzzer_Sounder\sim\oscillator test_inverter.asc

R3: both pins shorted together -- ignoring.
Direct Newton iteration for .op point succeeded.

Date: Wed Nov 14 15:45:20 2018
Total elapsed time: 5.511 seconds.

tnom = 27
temp = 27
method = modified trap
totiter = 504616
traniter = 504602
tranpoints = 124829
accept = 92572
rejected = 32257
matrix size = 23
fillins = 17
solver = Alternate
Matrix Compiler1: 3.53 KB object code size  1.2/0.9/[0.5]
Matrix Compiler2: 2.83 KB object code size  3.5/0.8/[0.4]

