Circuit: * D:\WORK\Project\Github\Buzzer_Sounder\sim\oscillator test_bjt-1.asc

Direct Newton iteration for .op point succeeded.

Date: Thu Nov 15 11:00:16 2018
Total elapsed time: 0.916 seconds.

tnom = 27
temp = 27
method = modified trap
totiter = 83319
traniter = 83307
tranpoints = 21645
accept = 16156
rejected = 5489
matrix size = 14
fillins = 14
solver = Alternate
Matrix Compiler1: 1.41 KB object code size  0.4/0.2/[0.1]
Matrix Compiler2: 1.38 KB object code size  0.2/0.2/[0.1]

