Circuit: * D:\WORK\Project\Github\Buzzer_Sounder\sim\oscillator test_inverter.asc

R3: both pins shorted together -- ignoring.
Direct Newton iteration for .op point succeeded.

Date: Thu Nov 15 17:29:32 2018
Total elapsed time: 8.083 seconds.

tnom = 27
temp = 27
method = modified trap
totiter = 511804
traniter = 511790
tranpoints = 126387
accept = 93830
rejected = 32557
matrix size = 23
fillins = 17
solver = Alternate
Matrix Compiler1: 3.53 KB object code size  1.0/0.8/[0.5]
Matrix Compiler2: 2.83 KB object code size  0.4/0.7/[0.4]

