Circuit: * D:\WORK\Project\Github\Buzzer_Sounder\sim\oscillator test_bjt-2.asc

Direct Newton iteration for .op point succeeded.

Date: Thu Nov 15 11:29:40 2018
Total elapsed time: 0.284 seconds.

tnom = 27
temp = 27
method = modified trap
totiter = 54148
traniter = 54136
tranpoints = 15448
accept = 11055
rejected = 4393
matrix size = 16
fillins = 10
solver = Alternate
Matrix Compiler1: 2.03 KB object code size  0.7/0.5/[0.3]
Matrix Compiler2: 1.68 KB object code size  0.3/0.5/[0.3]

