Circuit: * D:\WORK\Project\Github\Buzzer_Sounder\sim\parameter extraction.asc

WARNING: Less than two connections to node N003.  This node is used by B1.
WARNING: Less than two connections to node N004.  This node is used by B2.
Direct Newton iteration for .op point succeeded.

Date: Mon Nov 05 12:37:08 2018
Total elapsed time: 0.187 seconds.

tnom = 27
temp = 27
method = trap
totiter = 3
traniter = 0
tranpoints = 0
accept = 0
rejected = 0
matrix size = 8
fillins = 0
solver = Alternate
Matrix Compiler1:      10 opcodes
Matrix Compiler2: 452 bytes object code size
